*SPEF "ieee 1481-1999"
*DESIGN "uart_macro_wrapper"
*DATE "11:11:11 Fri 11 11, 1111"
*VENDOR "OpenRCX"
*PROGRAM "Parallel Extraction"
*VERSION "1.0"
*DESIGN_FLOW "NAME_SCOPE LOCAL" "PIN_CAP NONE"
*DIVIDER /
*DELIMITER :
*BUS_DELIMITER []
*T_UNIT 1 NS
*C_UNIT 1 PF
*R_UNIT 1 OHM
*L_UNIT 1 HENRY

*NAME_MAP
*1 net137
*2 net131
*3 uart_irq
*4 uart_rx
*5 uart_tx
*8 wb_clk_i
*9 wb_rst_i
*10 wbs_ack_o
*11 wbs_adr_i[0]
*12 wbs_adr_i[10]
*13 wbs_adr_i[11]
*14 wbs_adr_i[12]
*15 wbs_adr_i[13]
*16 wbs_adr_i[14]
*17 wbs_adr_i[15]
*18 wbs_adr_i[16]
*19 wbs_adr_i[17]
*20 wbs_adr_i[18]
*21 wbs_adr_i[19]
*22 wbs_adr_i[1]
*23 wbs_adr_i[20]
*24 wbs_adr_i[21]
*25 wbs_adr_i[22]
*26 wbs_adr_i[23]
*27 wbs_adr_i[24]
*28 wbs_adr_i[25]
*29 wbs_adr_i[26]
*30 wbs_adr_i[27]
*31 wbs_adr_i[28]
*32 wbs_adr_i[29]
*33 wbs_adr_i[2]
*34 wbs_adr_i[30]
*35 wbs_adr_i[31]
*36 wbs_adr_i[3]
*37 wbs_adr_i[4]
*38 wbs_adr_i[5]
*39 wbs_adr_i[6]
*40 wbs_adr_i[7]
*41 wbs_adr_i[8]
*42 wbs_adr_i[9]
*43 wbs_cyc_i
*44 wbs_dat_i[0]
*45 wbs_dat_i[10]
*46 wbs_dat_i[11]
*47 wbs_dat_i[12]
*48 wbs_dat_i[13]
*49 wbs_dat_i[14]
*50 wbs_dat_i[15]
*51 wbs_dat_i[16]
*52 wbs_dat_i[17]
*53 wbs_dat_i[18]
*54 wbs_dat_i[19]
*55 wbs_dat_i[1]
*56 wbs_dat_i[20]
*57 wbs_dat_i[21]
*58 wbs_dat_i[22]
*59 wbs_dat_i[23]
*60 wbs_dat_i[24]
*61 wbs_dat_i[25]
*62 wbs_dat_i[26]
*63 wbs_dat_i[27]
*64 wbs_dat_i[28]
*65 wbs_dat_i[29]
*66 wbs_dat_i[2]
*67 wbs_dat_i[30]
*68 wbs_dat_i[31]
*69 wbs_dat_i[3]
*70 wbs_dat_i[4]
*71 wbs_dat_i[5]
*72 wbs_dat_i[6]
*73 wbs_dat_i[7]
*74 wbs_dat_i[8]
*75 wbs_dat_i[9]
*76 wbs_dat_o[0]
*77 wbs_dat_o[10]
*78 wbs_dat_o[11]
*79 wbs_dat_o[12]
*80 wbs_dat_o[13]
*81 wbs_dat_o[14]
*82 wbs_dat_o[15]
*83 wbs_dat_o[16]
*84 net132
*85 wbs_dat_o[18]
*86 wbs_dat_o[19]
*87 wbs_dat_o[1]
*88 net133
*89 wbs_dat_o[21]
*90 net134
*91 wbs_dat_o[23]
*92 net135
*93 wbs_dat_o[25]
*94 wbs_dat_o[26]
*95 wbs_dat_o[27]
*96 wbs_dat_o[28]
*97 net136
*98 wbs_dat_o[2]
*99 wbs_dat_o[30]
*100 wbs_dat_o[31]
*101 wbs_dat_o[3]
*102 wbs_dat_o[4]
*103 wbs_dat_o[5]
*104 wbs_dat_o[6]
*105 wbs_dat_o[7]
*106 wbs_dat_o[8]
*107 wbs_dat_o[9]
*108 wbs_sel_i[0]
*109 wbs_sel_i[1]
*110 wbs_sel_i[2]
*111 wbs_sel_i[3]
*112 wbs_stb_i
*113 wbs_we_i
*114 _0000_
*115 _0001_
*116 _0002_
*117 _0003_
*118 _0004_
*119 _0005_
*120 _0006_
*121 _0007_
*122 _0008_
*123 _0009_
*124 _0010_
*125 _0011_
*126 _0012_
*127 _0013_
*128 _0014_
*129 _0015_
*130 _0016_
*131 _0017_
*132 _0018_
*133 _0019_
*134 _0020_
*135 _0021_
*136 _0022_
*137 _0023_
*138 _0024_
*139 _0025_
*140 _0026_
*141 _0027_
*142 _0028_
*143 _0029_
*144 _0030_
*145 _0031_
*146 _0032_
*147 _0033_
*148 _0034_
*149 _0035_
*150 _0036_
*151 _0037_
*152 _0038_
*153 _0039_
*154 _0040_
*155 _0041_
*156 _0042_
*157 _0043_
*158 _0044_
*159 _0045_
*160 _0046_
*161 _0047_
*162 _0048_
*163 _0049_
*164 _0050_
*165 _0051_
*166 _0052_
*167 _0053_
*168 _0054_
*169 _0055_
*170 _0056_
*171 _0057_
*172 _0058_
*173 _0059_
*174 _0060_
*175 _0061_
*176 _0062_
*177 _0063_
*178 _0064_
*179 _0065_
*180 _0066_
*181 _0067_
*182 _0068_
*183 _0069_
*184 _0070_
*185 _0071_
*186 _0072_
*187 _0073_
*188 _0074_
*189 _0075_
*190 _0076_
*191 _0077_
*192 _0078_
*193 _0079_
*194 _0080_
*195 _0081_
*196 _0082_
*197 _0083_
*198 _0084_
*199 _0085_
*200 _0086_
*201 _0087_
*202 _0088_
*203 _0089_
*204 _0090_
*205 _0091_
*206 _0092_
*207 _0093_
*208 _0094_
*209 _0095_
*210 _0096_
*211 _0097_
*212 _0098_
*213 _0099_
*214 _0100_
*215 _0101_
*216 _0102_
*217 _0103_
*218 _0104_
*219 _0105_
*220 _0106_
*221 _0107_
*222 _0108_
*223 _0109_
*224 _0110_
*225 _0111_
*226 _0112_
*227 _0113_
*228 _0114_
*229 _0115_
*230 _0116_
*231 _0117_
*232 _0118_
*233 _0119_
*234 _0120_
*235 _0121_
*236 _0122_
*237 _0123_
*238 _0124_
*239 _0125_
*240 _0126_
*241 _0127_
*242 _0128_
*243 _0129_
*244 _0130_
*245 _0131_
*246 _0132_
*247 _0133_
*248 _0134_
*249 _0135_
*250 _0136_
*251 _0137_
*252 _0138_
*253 _0139_
*254 _0140_
*255 _0141_
*256 _0142_
*257 _0143_
*258 _0144_
*259 _0145_
*260 _0146_
*261 _0147_
*262 _0148_
*263 _0149_
*264 _0150_
*265 _0151_
*266 _0152_
*267 _0153_
*268 _0154_
*269 _0155_
*270 _0156_
*271 _0157_
*272 _0158_
*273 _0159_
*274 _0160_
*275 _0161_
*276 _0162_
*277 _0163_
*278 _0164_
*279 _0165_
*280 _0166_
*281 _0167_
*282 _0168_
*283 _0169_
*284 _0170_
*285 _0171_
*286 _0172_
*287 _0173_
*288 _0174_
*289 _0175_
*290 _0176_
*291 _0177_
*292 _0178_
*293 _0179_
*294 _0180_
*295 _0181_
*296 _0182_
*297 _0183_
*298 _0184_
*299 _0185_
*300 _0186_
*301 _0187_
*302 _0188_
*303 _0189_
*304 _0190_
*305 _0191_
*306 _0192_
*307 _0193_
*308 _0194_
*309 _0195_
*310 _0196_
*311 _0197_
*312 _0198_
*313 _0199_
*314 _0200_
*315 _0201_
*316 _0202_
*317 _0203_
*318 _0204_
*319 _0205_
*320 _0206_
*321 _0207_
*322 _0208_
*323 _0209_
*324 _0210_
*325 _0211_
*326 _0212_
*327 _0213_
*328 _0214_
*329 _0215_
*330 _0216_
*331 _0217_
*332 _0218_
*333 _0219_
*334 _0220_
*335 _0221_
*336 _0222_
*337 _0223_
*338 _0224_
*339 _0225_
*340 _0226_
*341 _0227_
*342 _0228_
*343 _0229_
*344 _0230_
*345 _0231_
*346 _0232_
*347 _0233_
*348 _0234_
*349 _0235_
*350 _0236_
*351 _0237_
*352 _0238_
*353 _0239_
*354 _0240_
*355 _0241_
*356 _0242_
*357 _0243_
*358 _0244_
*359 _0245_
*360 _0246_
*361 _0247_
*362 _0248_
*363 _0249_
*364 _0250_
*365 _0251_
*366 _0252_
*367 _0253_
*368 _0254_
*369 _0255_
*370 _0256_
*371 _0257_
*372 _0258_
*373 _0259_
*374 _0260_
*375 _0261_
*376 _0262_
*377 _0263_
*378 _0264_
*379 _0265_
*380 _0266_
*381 _0267_
*382 _0268_
*383 _0269_
*384 _0270_
*385 _0271_
*386 _0272_
*387 _0273_
*388 _0274_
*389 _0275_
*390 _0276_
*391 _0277_
*392 _0278_
*393 _0279_
*394 _0280_
*395 _0281_
*396 _0282_
*397 _0283_
*398 _0284_
*399 _0285_
*400 _0286_
*401 _0287_
*402 _0288_
*403 _0289_
*404 _0290_
*405 _0291_
*406 _0292_
*407 _0293_
*408 _0294_
*409 _0295_
*410 _0296_
*411 _0297_
*412 _0298_
*413 _0299_
*414 _0300_
*415 _0301_
*416 _0302_
*417 _0303_
*418 _0304_
*419 _0305_
*420 _0306_
*421 _0307_
*422 _0308_
*423 _0309_
*424 _0310_
*425 _0311_
*426 _0312_
*427 _0313_
*428 _0314_
*429 _0315_
*430 _0316_
*431 _0317_
*432 _0318_
*433 _0319_
*434 _0320_
*435 _0321_
*436 _0322_
*437 _0323_
*438 _0324_
*439 _0325_
*440 _0326_
*441 _0327_
*442 _0328_
*443 _0329_
*444 _0330_
*445 _0331_
*446 _0332_
*447 _0333_
*448 _0334_
*449 _0335_
*450 _0336_
*451 _0337_
*452 _0338_
*453 _0339_
*454 _0340_
*455 _0341_
*456 _0342_
*457 _0343_
*458 _0344_
*459 _0345_
*460 _0346_
*461 _0347_
*462 _0348_
*463 _0349_
*464 _0350_
*465 _0351_
*466 _0352_
*467 _0353_
*468 _0354_
*469 _0355_
*470 _0356_
*471 _0357_
*472 _0358_
*473 _0359_
*474 _0360_
*475 _0361_
*476 _0362_
*477 _0363_
*478 _0364_
*479 _0365_
*480 _0366_
*481 _0367_
*482 _0368_
*483 _0369_
*484 _0370_
*485 _0371_
*486 _0372_
*487 _0373_
*488 _0374_
*489 _0375_
*490 _0376_
*491 _0377_
*492 _0378_
*493 _0379_
*494 _0380_
*495 _0381_
*496 _0382_
*497 _0383_
*498 _0384_
*499 _0385_
*500 _0386_
*501 _0387_
*502 _0388_
*503 _0389_
*504 _0390_
*505 _0391_
*506 _0392_
*507 _0393_
*508 _0394_
*509 _0395_
*510 _0396_
*511 _0397_
*512 _0398_
*513 _0399_
*514 _0400_
*515 _0401_
*516 _0402_
*517 _0403_
*518 _0404_
*519 _0405_
*520 _0406_
*521 _0407_
*522 _0408_
*523 _0409_
*524 _0410_
*525 _0411_
*526 _0412_
*527 _0413_
*528 _0414_
*529 _0415_
*530 _0416_
*531 _0417_
*532 _0418_
*533 _0419_
*534 _0420_
*535 _0421_
*536 _0422_
*537 _0423_
*538 _0424_
*539 _0425_
*540 _0426_
*541 _0427_
*542 _0428_
*543 _0429_
*544 _0430_
*545 _0431_
*546 _0432_
*547 _0433_
*548 _0434_
*549 _0435_
*550 _0436_
*551 _0437_
*552 _0438_
*553 _0439_
*554 _0440_
*555 _0441_
*556 _0442_
*557 _0443_
*558 _0444_
*559 _0445_
*560 _0446_
*561 _0447_
*562 _0448_
*563 _0449_
*564 _0450_
*565 _0451_
*566 _0452_
*567 _0453_
*568 _0454_
*569 _0455_
*570 _0456_
*571 _0457_
*572 _0458_
*573 _0459_
*574 _0460_
*575 _0461_
*576 _0462_
*577 _0463_
*578 _0464_
*579 _0465_
*580 _0466_
*581 _0467_
*582 _0468_
*583 _0469_
*584 _0470_
*585 _0471_
*586 _0472_
*587 _0473_
*588 _0474_
*589 _0475_
*590 _0476_
*591 _0477_
*592 _0478_
*593 _0479_
*594 _0480_
*595 _0481_
*596 _0482_
*597 _0483_
*598 _0484_
*599 _0485_
*600 _0486_
*601 _0487_
*602 _0488_
*603 _0489_
*604 _0490_
*605 _0491_
*606 _0492_
*607 _0493_
*608 _0494_
*609 _0495_
*610 _0496_
*611 _0497_
*612 _0498_
*613 _0499_
*614 _0500_
*615 _0501_
*616 _0502_
*617 _0503_
*618 _0504_
*619 _0505_
*620 _0506_
*621 _0507_
*622 _0508_
*623 _0509_
*624 _0510_
*625 _0511_
*626 _0512_
*627 _0513_
*628 _0514_
*629 _0515_
*630 _0516_
*631 _0517_
*632 _0518_
*633 _0519_
*634 _0520_
*635 _0521_
*636 _0522_
*637 _0523_
*638 _0524_
*639 _0525_
*640 _0526_
*641 _0527_
*642 _0528_
*643 _0529_
*644 _0530_
*645 _0531_
*646 _0532_
*647 _0533_
*648 _0534_
*649 _0535_
*650 _0536_
*651 _0537_
*652 _0538_
*653 _0539_
*654 _0540_
*655 _0541_
*656 _0542_
*657 _0543_
*658 _0544_
*659 _0545_
*660 _0546_
*661 _0547_
*662 _0548_
*663 _0549_
*664 _0550_
*665 _0551_
*666 _0552_
*667 _0553_
*668 _0554_
*669 _0555_
*670 _0556_
*671 _0557_
*672 _0558_
*673 _0559_
*674 _0560_
*675 _0561_
*676 _0562_
*677 _0563_
*678 _0564_
*679 _0565_
*680 _0566_
*681 _0567_
*682 _0568_
*683 _0569_
*684 _0570_
*685 _0571_
*686 _0572_
*687 _0573_
*688 _0574_
*689 _0575_
*690 _0576_
*691 _0577_
*692 _0578_
*693 _0579_
*694 _0580_
*695 _0581_
*696 _0582_
*697 _0583_
*698 _0584_
*699 _0585_
*700 _0586_
*701 _0587_
*702 _0588_
*703 _0589_
*704 _0590_
*705 _0591_
*706 _0592_
*707 _0593_
*708 _0594_
*709 _0595_
*710 _0596_
*711 _0597_
*712 _0598_
*713 _0599_
*714 _0600_
*715 _0601_
*716 _0602_
*717 _0603_
*718 _0604_
*719 _0605_
*720 _0606_
*721 _0607_
*722 _0608_
*723 _0609_
*724 _0610_
*725 _0611_
*726 _0612_
*727 _0613_
*728 _0614_
*729 _0615_
*730 _0616_
*731 _0617_
*732 _0618_
*733 _0619_
*734 _0620_
*735 _0621_
*736 _0622_
*737 _0623_
*738 _0624_
*739 _0625_
*740 _0626_
*741 _0627_
*742 _0628_
*743 _0629_
*744 _0630_
*745 _0631_
*746 _0632_
*747 _0633_
*748 _0634_
*749 _0635_
*750 _0636_
*751 _0637_
*752 _0638_
*753 _0639_
*754 _0640_
*755 _0641_
*756 _0642_
*757 _0643_
*758 _0644_
*759 _0645_
*760 _0646_
*761 _0647_
*762 _0648_
*763 _0649_
*764 _0650_
*765 _0651_
*766 _0652_
*767 _0653_
*768 _0654_
*769 _0655_
*770 _0656_
*771 _0657_
*772 _0658_
*773 _0659_
*774 _0660_
*775 _0661_
*776 _0662_
*777 _0663_
*778 _0664_
*779 _0665_
*780 _0666_
*781 _0667_
*782 _0668_
*783 _0669_
*784 _0670_
*785 _0671_
*786 _0672_
*787 _0673_
*788 _0674_
*789 _0675_
*790 _0676_
*791 _0677_
*792 _0678_
*793 _0679_
*794 _0680_
*795 _0681_
*796 _0682_
*797 _0683_
*798 _0684_
*799 _0685_
*800 _0686_
*801 _0687_
*802 _0688_
*803 _0689_
*804 _0690_
*805 _0691_
*806 _0692_
*807 _0693_
*808 _0694_
*809 _0695_
*810 _0696_
*811 _0697_
*812 _0698_
*813 _0699_
*814 _0700_
*815 _0701_
*816 _0702_
*817 _0703_
*818 _0704_
*819 _0705_
*820 _0706_
*821 _0707_
*822 _0708_
*823 _0709_
*824 _0710_
*825 _0711_
*826 _0712_
*827 _0713_
*828 _0714_
*829 _0715_
*830 _0716_
*831 _0717_
*832 _0718_
*833 _0719_
*834 _0720_
*835 _0721_
*836 _0722_
*837 _0723_
*838 _0724_
*839 _0725_
*840 _0726_
*841 _0727_
*842 _0728_
*843 _0729_
*844 _0730_
*845 _0731_
*846 _0732_
*847 _0733_
*848 _0734_
*849 _0735_
*850 _0736_
*851 _0737_
*852 _0738_
*853 _0739_
*854 _0740_
*855 _0741_
*856 _0742_
*857 _0743_
*858 _0744_
*859 _0745_
*860 _0746_
*861 _0747_
*862 _0748_
*863 _0749_
*864 _0750_
*865 _0751_
*866 _0752_
*867 _0753_
*868 _0754_
*869 _0755_
*870 _0756_
*871 _0757_
*872 _0758_
*873 _0759_
*874 _0760_
*875 _0761_
*876 _0762_
*877 _0763_
*878 _0764_
*879 _0765_
*880 _0766_
*881 _0767_
*882 _0768_
*883 _0769_
*884 _0770_
*885 _0771_
*886 _0772_
*887 _0773_
*888 _0774_
*889 _0775_
*890 _0776_
*891 _0777_
*892 _0778_
*893 _0779_
*894 _0780_
*895 _0781_
*896 _0782_
*897 _0783_
*898 _0784_
*899 _0785_
*900 _0786_
*901 _0787_
*902 _0788_
*903 _0789_
*904 _0790_
*905 _0791_
*906 _0792_
*907 _0793_
*908 _0794_
*909 _0795_
*910 _0796_
*911 _0797_
*912 _0798_
*913 _0799_
*914 _0800_
*915 _0801_
*916 _0802_
*917 _0803_
*918 _0804_
*919 _0805_
*920 _0806_
*921 _0807_
*922 _0808_
*923 _0809_
*924 _0810_
*925 _0811_
*926 _0812_
*927 _0813_
*928 _0814_
*929 _0815_
*930 _0816_
*931 _0817_
*932 _0818_
*933 _0819_
*934 _0820_
*935 _0821_
*936 _0822_
*937 _0823_
*938 _0824_
*939 _0825_
*940 _0826_
*941 _0827_
*942 _0828_
*943 _0829_
*944 _0830_
*945 _0831_
*946 _0832_
*947 _0833_
*948 _0834_
*949 _0835_
*950 _0836_
*951 _0837_
*952 _0838_
*953 _0839_
*954 _0840_
*955 _0841_
*956 _0842_
*957 _0843_
*958 _0844_
*959 _0845_
*960 _0846_
*961 _0847_
*962 _0848_
*963 _0849_
*964 _0850_
*965 _0851_
*966 _0852_
*967 _0853_
*968 _0854_
*969 _0855_
*970 _0856_
*971 _0857_
*972 _0858_
*973 _0859_
*974 _0860_
*975 _0861_
*976 _0862_
*977 _0863_
*978 _0864_
*979 _0865_
*980 _0866_
*981 _0867_
*982 _0868_
*983 _0869_
*984 _0870_
*985 _0871_
*986 _0872_
*987 _0873_
*988 _0874_
*989 _0875_
*990 _0876_
*991 _0877_
*992 _0878_
*993 _0879_
*994 _0880_
*995 _0881_
*996 _0882_
*997 _0883_
*998 _0884_
*999 _0885_
*1000 _0886_
*1001 _0887_
*1002 _0888_
*1003 _0889_
*1004 _0890_
*1005 _0891_
*1006 _0892_
*1007 _0893_
*1008 _0894_
*1009 _0895_
*1010 _0896_
*1011 _0897_
*1012 _0898_
*1013 _0899_
*1014 _0900_
*1015 _0901_
*1016 _0902_
*1017 _0903_
*1018 _0904_
*1019 _0905_
*1020 _0906_
*1021 _0907_
*1022 _0908_
*1023 _0909_
*1024 _0910_
*1025 _0911_
*1026 _0912_
*1027 _0913_
*1028 _0914_
*1029 _0915_
*1030 _0916_
*1031 _0917_
*1032 _0918_
*1033 _0919_
*1034 _0920_
*1035 _0921_
*1036 _0922_
*1037 _0923_
*1038 _0924_
*1039 _0925_
*1040 _0926_
*1041 _0927_
*1042 _0928_
*1043 _0929_
*1044 _0930_
*1045 _0931_
*1046 _0932_
*1047 _0933_
*1048 _0934_
*1049 _0935_
*1050 _0936_
*1051 _0937_
*1052 _0938_
*1053 _0939_
*1054 _0940_
*1055 _0941_
*1056 _0942_
*1057 _0943_
*1058 _0944_
*1059 _0945_
*1060 _0946_
*1061 _0947_
*1062 _0948_
*1063 _0949_
*1064 _0950_
*1065 _0951_
*1066 _0952_
*1067 _0953_
*1068 _0954_
*1069 _0955_
*1070 _0956_
*1071 _0957_
*1072 _0958_
*1073 _0959_
*1074 _0960_
*1075 _0961_
*1076 _0962_
*1077 _0963_
*1078 _0964_
*1079 _0965_
*1080 _0966_
*1081 _0967_
*1082 _0968_
*1083 _0969_
*1084 _0970_
*1085 _0971_
*1086 _0972_
*1087 _0973_
*1088 _0974_
*1089 _0975_
*1090 _0976_
*1091 _0977_
*1092 _0978_
*1093 _0979_
*1094 _0980_
*1095 _0981_
*1096 _0982_
*1097 _0983_
*1098 _0984_
*1099 _0985_
*1100 _0986_
*1101 _0987_
*1102 _0988_
*1103 _0989_
*1104 _0990_
*1105 _0991_
*1106 _0992_
*1107 _0993_
*1108 _0994_
*1109 _0995_
*1110 _0996_
*1111 _0997_
*1112 _0998_
*1113 _0999_
*1114 _1000_
*1115 _1001_
*1116 _1002_
*1117 _1003_
*1118 _1004_
*1119 _1005_
*1120 _1006_
*1121 _1007_
*1122 _1008_
*1123 _1009_
*1124 _1010_
*1125 _1011_
*1126 _1012_
*1127 _1013_
*1128 _1014_
*1129 _1015_
*1130 _1016_
*1131 _1017_
*1132 _1018_
*1133 _1019_
*1134 _1020_
*1135 _1021_
*1136 _1022_
*1137 _1023_
*1138 _1024_
*1139 _1025_
*1140 _1026_
*1141 _1027_
*1142 _1028_
*1143 _1029_
*1144 _1030_
*1145 _1031_
*1146 _1032_
*1147 _1033_
*1148 _1034_
*1149 _1035_
*1150 _1036_
*1151 _1037_
*1152 _1038_
*1153 _1039_
*1154 _1040_
*1155 _1041_
*1156 _1042_
*1157 _1043_
*1158 _1044_
*1159 _1045_
*1160 _1046_
*1161 _1047_
*1162 _1048_
*1163 _1049_
*1164 _1050_
*1165 _1051_
*1166 _1052_
*1167 _1053_
*1168 _1054_
*1169 _1055_
*1170 _1056_
*1171 _1057_
*1172 _1058_
*1173 _1059_
*1174 _1060_
*1175 _1061_
*1176 _1062_
*1177 _1063_
*1178 _1064_
*1179 _1065_
*1180 _1066_
*1181 _1067_
*1182 _1068_
*1183 _1069_
*1184 _1070_
*1185 _1071_
*1186 _1072_
*1187 _1073_
*1188 _1074_
*1189 _1075_
*1190 _1076_
*1191 _1077_
*1192 _1078_
*1193 _1079_
*1194 _1080_
*1195 _1081_
*1196 _1082_
*1197 _1083_
*1198 _1084_
*1199 _1085_
*1200 _1086_
*1201 _1087_
*1202 _1088_
*1203 _1089_
*1204 _1090_
*1205 _1091_
*1206 _1092_
*1207 _1093_
*1208 _1094_
*1209 _1095_
*1210 _1096_
*1211 _1097_
*1212 _1098_
*1213 _1099_
*1214 _1100_
*1215 _1101_
*1216 _1102_
*1217 _1103_
*1218 _1104_
*1219 _1105_
*1220 _1106_
*1221 _1107_
*1222 _1108_
*1223 _1109_
*1224 _1110_
*1225 _1111_
*1226 _1112_
*1227 _1113_
*1228 _1114_
*1229 _1115_
*1230 _1116_
*1231 _1117_
*1232 _1118_
*1233 _1119_
*1234 _1120_
*1235 _1121_
*1236 _1122_
*1237 _1123_
*1238 _1124_
*1239 _1125_
*1240 _1126_
*1241 _1127_
*1242 _1128_
*1243 _1129_
*1244 _1130_
*1245 _1131_
*1246 _1132_
*1247 _1133_
*1248 _1134_
*1249 _1135_
*1250 _1136_
*1251 _1137_
*1252 _1138_
*1253 _1139_
*1254 _1140_
*1255 _1141_
*1256 _1142_
*1257 _1143_
*1258 _1144_
*1259 _1145_
*1260 _1146_
*1261 _1147_
*1262 _1148_
*1263 _1149_
*1264 _1150_
*1265 _1151_
*1266 _1152_
*1267 _1153_
*1268 _1154_
*1269 _1155_
*1270 _1156_
*1271 _1157_
*1272 _1158_
*1273 _1159_
*1274 _1160_
*1275 _1161_
*1276 _1162_
*1277 _1163_
*1278 _1164_
*1279 _1165_
*1280 _1166_
*1281 _1167_
*1282 _1168_
*1283 _1169_
*1284 _1170_
*1285 _1171_
*1286 _1172_
*1287 _1173_
*1288 _1174_
*1289 _1175_
*1290 _1176_
*1291 _1177_
*1292 _1178_
*1293 _1179_
*1294 _1180_
*1295 _1181_
*1296 _1182_
*1297 _1183_
*1298 _1184_
*1299 _1185_
*1300 _1186_
*1301 _1187_
*1302 _1188_
*1303 _1189_
*1304 _1190_
*1305 _1191_
*1306 _1192_
*1307 _1193_
*1308 _1194_
*1309 _1195_
*1310 _1196_
*1311 _1197_
*1312 _1198_
*1313 _1199_
*1314 _1200_
*1315 _1201_
*1316 _1202_
*1317 _1203_
*1318 _1204_
*1319 _1205_
*1320 _1206_
*1321 _1207_
*1322 _1208_
*1323 _1209_
*1324 _1210_
*1325 _1211_
*1326 _1212_
*1327 _1213_
*1328 _1214_
*1329 _1215_
*1330 _1216_
*1331 _1217_
*1332 _1218_
*1333 _1219_
*1334 _1220_
*1335 _1221_
*1336 _1222_
*1337 _1223_
*1338 _1224_
*1339 _1225_
*1340 _1226_
*1341 _1227_
*1342 _1228_
*1343 _1229_
*1344 _1230_
*1345 _1231_
*1346 _1232_
*1347 _1233_
*1348 _1234_
*1349 _1235_
*1350 _1236_
*1351 _1237_
*1352 _1238_
*1353 _1239_
*1354 _1240_
*1355 _1241_
*1356 _1242_
*1357 _1243_
*1358 _1244_
*1359 _1245_
*1360 _1246_
*1361 _1247_
*1362 _1248_
*1363 _1249_
*1364 _1250_
*1365 _1251_
*1366 _1252_
*1367 _1253_
*1368 _1254_
*1369 _1255_
*1370 _1256_
*1371 _1257_
*1372 _1258_
*1373 _1259_
*1374 _1260_
*1375 _1261_
*1376 _1262_
*1377 _1263_
*1378 _1264_
*1379 _1265_
*1380 _1266_
*1381 _1267_
*1382 _1268_
*1383 _1269_
*1384 _1270_
*1385 _1271_
*1386 _1272_
*1387 _1273_
*1388 _1274_
*1389 _1275_
*1390 _1276_
*1391 _1277_
*1392 _1278_
*1393 _1279_
*1394 _1280_
*1395 _1281_
*1396 _1282_
*1397 _1283_
*1398 _1284_
*1399 _1285_
*1400 _1286_
*1401 _1287_
*1402 _1288_
*1403 _1289_
*1404 _1290_
*1405 _1291_
*1406 _1292_
*1407 _1293_
*1408 _1294_
*1409 _1295_
*1410 _1296_
*1411 _1297_
*1412 _1298_
*1413 _1299_
*1414 _1300_
*1415 _1301_
*1416 _1302_
*1417 _1303_
*1418 _1304_
*1419 _1305_
*1420 _1306_
*1421 _1307_
*1422 _1308_
*1423 _1309_
*1424 _1310_
*1425 _1311_
*1426 _1312_
*1427 _1313_
*1428 _1314_
*1429 _1315_
*1430 _1316_
*1431 _1317_
*1432 _1318_
*1433 _1319_
*1434 _1320_
*1435 _1321_
*1436 _1322_
*1437 _1323_
*1438 _1324_
*1439 _1325_
*1440 _1326_
*1441 _1327_
*1442 _1328_
*1443 _1329_
*1444 _1330_
*1445 _1331_
*1446 _1332_
*1447 _1333_
*1448 _1334_
*1449 _1335_
*1450 _1336_
*1451 _1337_
*1452 _1338_
*1453 _1339_
*1454 _1340_
*1455 _1341_
*1456 _1342_
*1457 _1343_
*1458 _1344_
*1459 _1345_
*1460 _1346_
*1461 _1347_
*1462 _1348_
*1463 _1349_
*1464 _1350_
*1465 _1351_
*1466 _1352_
*1467 _1353_
*1468 _1354_
*1469 _1355_
*1470 _1356_
*1471 _1357_
*1472 _1358_
*1473 _1359_
*1474 _1360_
*1475 _1361_
*1476 _1362_
*1477 _1363_
*1478 _1364_
*1479 _1365_
*1480 _1366_
*1481 _1367_
*1482 _1368_
*1483 _1369_
*1484 _1370_
*1485 _1371_
*1486 _1372_
*1487 _1373_
*1488 _1374_
*1489 _1375_
*1490 _1376_
*1491 _1377_
*1492 _1378_
*1493 _1379_
*1494 _1380_
*1495 _1381_
*1496 _1382_
*1497 _1383_
*1498 _1384_
*1499 _1385_
*1500 _1386_
*1501 _1387_
*1502 _1388_
*1503 _1389_
*1504 _1390_
*1505 _1391_
*1506 _1392_
*1507 _1393_
*1508 _1394_
*1509 _1395_
*1510 _1396_
*1511 _1397_
*1512 _1398_
*1513 _1399_
*1514 _1400_
*1515 _1401_
*1516 _1402_
*1517 _1403_
*1518 _1404_
*1519 _1405_
*1520 _1406_
*1521 _1407_
*1522 _1408_
*1523 _1409_
*1524 _1410_
*1525 _1411_
*1526 _1412_
*1527 _1413_
*1528 _1414_
*1529 _1415_
*1530 _1416_
*1531 _1417_
*1532 _1418_
*1533 _1419_
*1534 _1420_
*1535 _1421_
*1536 _1422_
*1537 _1423_
*1538 _1424_
*1539 _1425_
*1540 _1426_
*1541 _1427_
*1542 _1428_
*1543 _1429_
*1544 _1430_
*1545 _1431_
*1546 _1432_
*1547 _1433_
*1548 _1434_
*1549 _1435_
*1550 _1436_
*1551 _1437_
*1552 _1438_
*1553 _1439_
*1554 _1440_
*1555 _1441_
*1556 _1442_
*1557 _1443_
*1558 _1444_
*1559 _1445_
*1560 _1446_
*1561 _1447_
*1562 _1448_
*1563 _1449_
*1564 _1450_
*1565 _1451_
*1566 _1452_
*1567 _1453_
*1568 _1454_
*1569 _1455_
*1570 _1456_
*1571 _1457_
*1572 _1458_
*1573 _1459_
*1574 _1460_
*1575 _1461_
*1576 _1462_
*1577 _1463_
*1578 _1464_
*1579 _1465_
*1580 _1466_
*1581 _1467_
*1582 _1468_
*1583 _1469_
*1584 _1470_
*1585 _1471_
*1586 _1472_
*1587 _1473_
*1588 _1474_
*1589 _1475_
*1590 _1476_
*1591 _1477_
*1592 _1478_
*1593 _1479_
*1594 _1480_
*1595 _1481_
*1596 _1482_
*1597 _1483_
*1598 _1484_
*1599 _1485_
*1600 _1486_
*1601 _1487_
*1602 _1488_
*1603 _1489_
*1604 _1490_
*1605 _1491_
*1606 _1492_
*1607 _1493_
*1608 _1494_
*1609 _1495_
*1610 _1496_
*1611 _1497_
*1612 _1498_
*1613 _1499_
*1614 _1500_
*1615 _1501_
*1616 _1502_
*1617 _1503_
*1618 _1504_
*1619 _1505_
*1620 _1506_
*1621 _1507_
*1622 _1508_
*1623 _1509_
*1624 _1510_
*1625 _1511_
*1626 _1512_
*1627 _1513_
*1628 _1514_
*1629 _1515_
*1630 _1516_
*1631 _1517_
*1632 _1518_
*1633 _1519_
*1634 _1520_
*1635 _1521_
*1636 _1522_
*1637 _1523_
*1638 _1524_
*1639 _1525_
*1640 _1526_
*1641 _1527_
*1642 _1528_
*1643 _1529_
*1644 _1530_
*1645 _1531_
*1646 _1532_
*1647 _1533_
*1648 _1534_
*1649 _1535_
*1650 _1536_
*1651 _1537_
*1652 _1538_
*1653 _1539_
*1654 _1540_
*1655 _1541_
*1656 _1542_
*1657 _1543_
*1658 _1544_
*1659 _1545_
*1660 _1546_
*1661 _1547_
*1662 _1548_
*1663 _1549_
*1664 _1550_
*1665 _1551_
*1666 _1552_
*1667 _1553_
*1668 _1554_
*1669 _1555_
*1670 _1556_
*1671 clknet_0_wb_clk_i
*1672 clknet_2_0__leaf_wb_clk_i
*1673 clknet_2_1__leaf_wb_clk_i
*1674 clknet_2_2__leaf_wb_clk_i
*1675 clknet_2_3__leaf_wb_clk_i
*1676 clknet_leaf_0_wb_clk_i
*1677 clknet_leaf_10_wb_clk_i
*1678 clknet_leaf_11_wb_clk_i
*1679 clknet_leaf_12_wb_clk_i
*1680 clknet_leaf_13_wb_clk_i
*1681 clknet_leaf_14_wb_clk_i
*1682 clknet_leaf_15_wb_clk_i
*1683 clknet_leaf_16_wb_clk_i
*1684 clknet_leaf_17_wb_clk_i
*1685 clknet_leaf_18_wb_clk_i
*1686 clknet_leaf_19_wb_clk_i
*1687 clknet_leaf_1_wb_clk_i
*1688 clknet_leaf_20_wb_clk_i
*1689 clknet_leaf_21_wb_clk_i
*1690 clknet_leaf_22_wb_clk_i
*1691 clknet_leaf_23_wb_clk_i
*1692 clknet_leaf_24_wb_clk_i
*1693 clknet_leaf_25_wb_clk_i
*1694 clknet_leaf_26_wb_clk_i
*1695 clknet_leaf_27_wb_clk_i
*1696 clknet_leaf_28_wb_clk_i
*1697 clknet_leaf_29_wb_clk_i
*1698 clknet_leaf_2_wb_clk_i
*1699 clknet_leaf_30_wb_clk_i
*1700 clknet_leaf_31_wb_clk_i
*1701 clknet_leaf_32_wb_clk_i
*1702 clknet_leaf_33_wb_clk_i
*1703 clknet_leaf_34_wb_clk_i
*1704 clknet_leaf_35_wb_clk_i
*1705 clknet_leaf_36_wb_clk_i
*1706 clknet_leaf_37_wb_clk_i
*1707 clknet_leaf_38_wb_clk_i
*1708 clknet_leaf_39_wb_clk_i
*1709 clknet_leaf_3_wb_clk_i
*1710 clknet_leaf_40_wb_clk_i
*1711 clknet_leaf_41_wb_clk_i
*1712 clknet_leaf_42_wb_clk_i
*1713 clknet_leaf_43_wb_clk_i
*1714 clknet_leaf_44_wb_clk_i
*1715 clknet_leaf_45_wb_clk_i
*1716 clknet_leaf_46_wb_clk_i
*1717 clknet_leaf_47_wb_clk_i
*1718 clknet_leaf_48_wb_clk_i
*1719 clknet_leaf_4_wb_clk_i
*1720 clknet_leaf_5_wb_clk_i
*1721 clknet_leaf_6_wb_clk_i
*1722 clknet_leaf_7_wb_clk_i
*1723 clknet_leaf_8_wb_clk_i
*1724 clknet_leaf_9_wb_clk_i
*1725 net1
*1726 net10
*1727 net100
*1728 net1000
*1729 net1001
*1730 net1002
*1731 net1003
*1732 net1004
*1733 net1005
*1734 net1006
*1735 net1007
*1736 net1008
*1737 net1009
*1738 net101
*1739 net1010
*1740 net1011
*1741 net1012
*1742 net1013
*1743 net1014
*1744 net1015
*1745 net1016
*1746 net1017
*1747 net1018
*1748 net1019
*1749 net102
*1750 net1020
*1751 net1021
*1752 net1022
*1753 net1023
*1754 net1024
*1755 net1025
*1756 net1026
*1757 net1027
*1758 net1028
*1759 net1029
*1760 net103
*1761 net1030
*1762 net1031
*1763 net1032
*1764 net1033
*1765 net1034
*1766 net1035
*1767 net1036
*1768 net1037
*1769 net1038
*1770 net1039
*1771 net104
*1772 net1040
*1773 net1041
*1774 net1042
*1775 net1043
*1776 net1044
*1777 net1045
*1778 net1046
*1779 net1047
*1780 net1048
*1781 net1049
*1782 net105
*1783 net1050
*1784 net1051
*1785 net1052
*1786 net1053
*1787 net1054
*1788 net1055
*1789 net1056
*1790 net1057
*1791 net1058
*1792 net1059
*1793 net106
*1794 net1060
*1795 net1061
*1796 net1062
*1797 net1063
*1798 net1064
*1799 net1065
*1800 net1066
*1801 net1067
*1802 net1068
*1803 net1069
*1804 net107
*1805 net1070
*1806 net1071
*1807 net1072
*1808 net1073
*1809 net1074
*1810 net1075
*1811 net1076
*1812 net1077
*1813 net1078
*1814 net1079
*1815 net108
*1816 net1080
*1817 net1081
*1818 net1082
*1819 net1083
*1820 net1084
*1821 net1085
*1822 net1086
*1823 net1087
*1824 net1088
*1825 net1089
*1826 net109
*1827 net1090
*1828 net1091
*1829 net1092
*1830 net1093
*1831 net1094
*1832 net1095
*1833 net1096
*1834 net1097
*1835 net1098
*1836 net1099
*1837 net11
*1838 net110
*1839 net1100
*1840 net1101
*1841 net1102
*1842 net1103
*1843 net1104
*1844 net1105
*1845 net1106
*1846 net1107
*1847 net1108
*1848 net1109
*1849 net111
*1850 net1110
*1851 net1111
*1852 net1112
*1853 net1113
*1854 net1114
*1855 net1115
*1856 net1116
*1857 net1117
*1858 net1118
*1859 net1119
*1860 net112
*1861 net1120
*1862 net1121
*1863 net1122
*1864 net1123
*1865 net1124
*1866 net1125
*1867 net1126
*1868 net1127
*1869 net1128
*1870 net1129
*1871 net113
*1872 net1130
*1873 net1131
*1874 net1132
*1875 net1133
*1876 net1134
*1877 net1135
*1878 net1136
*1879 net1137
*1880 net1138
*1881 net1139
*1882 net114
*1883 net1140
*1884 net1141
*1885 net1142
*1886 net1143
*1887 net1144
*1888 net1145
*1889 net1146
*1890 net1147
*1891 net1148
*1892 net1149
*1893 net115
*1894 net1150
*1895 net1151
*1896 net1152
*1897 net1153
*1898 net1154
*1899 net1155
*1900 net1156
*1901 net1157
*1902 net1158
*1903 net1159
*1904 net116
*1905 net1160
*1906 net1161
*1907 net1162
*1908 net1163
*1909 net1164
*1910 net1165
*1911 net1166
*1912 net1167
*1913 net1168
*1914 net1169
*1915 net117
*1916 net1170
*1917 net1171
*1918 net1172
*1919 net1173
*1920 net1174
*1921 net1175
*1922 net1176
*1923 net1177
*1924 net1178
*1925 net1179
*1926 net118
*1927 net1180
*1928 net1181
*1929 net1182
*1930 net1183
*1931 net1184
*1932 net1185
*1933 net1186
*1934 net1187
*1935 net1188
*1936 net1189
*1937 net119
*1938 net1190
*1939 net1191
*1940 net1192
*1941 net1193
*1942 net1194
*1943 net1195
*1944 net1196
*1945 net1197
*1946 net12
*1947 net120
*1948 net121
*1949 net122
*1950 net123
*1951 net124
*1952 net125
*1953 net126
*1954 net127
*1955 net128
*1956 net129
*1957 net13
*1958 net130
*1959 net138
*1960 net139
*1961 net14
*1962 net140
*1963 net141
*1964 net142
*1965 net143
*1966 net144
*1967 net145
*1968 net146
*1969 net147
*1970 net148
*1971 net149
*1972 net15
*1973 net150
*1974 net151
*1975 net152
*1976 net153
*1977 net154
*1978 net155
*1979 net156
*1980 net157
*1981 net158
*1982 net159
*1983 net16
*1984 net160
*1985 net161
*1986 net162
*1987 net163
*1988 net164
*1989 net165
*1990 net166
*1991 net167
*1992 net168
*1993 net169
*1994 net17
*1995 net170
*1996 net171
*1997 net172
*1998 net173
*1999 net174
*2000 net175
*2001 net176
*2002 net177
*2003 net178
*2004 net179
*2005 net18
*2006 net180
*2007 net181
*2008 net182
*2009 net183
*2010 net184
*2011 net185
*2012 net186
*2013 net187
*2014 net188
*2015 net189
*2016 net19
*2017 net190
*2018 net191
*2019 net192
*2020 net193
*2021 net194
*2022 net195
*2023 net196
*2024 net197
*2025 net198
*2026 net199
*2027 net2
*2028 net20
*2029 net200
*2030 net201
*2031 net202
*2032 net203
*2033 net204
*2034 net205
*2035 net206
*2036 net207
*2037 net208
*2038 net209
*2039 net21
*2040 net210
*2041 net211
*2042 net212
*2043 net213
*2044 net214
*2045 net215
*2046 net216
*2047 net217
*2048 net218
*2049 net219
*2050 net22
*2051 net220
*2052 net221
*2053 net222
*2054 net223
*2055 net224
*2056 net225
*2057 net226
*2058 net227
*2059 net228
*2060 net229
*2061 net23
*2062 net230
*2063 net231
*2064 net232
*2065 net233
*2066 net234
*2067 net235
*2068 net236
*2069 net237
*2070 net238
*2071 net239
*2072 net24
*2073 net240
*2074 net241
*2075 net242
*2076 net243
*2077 net244
*2078 net245
*2079 net246
*2080 net247
*2081 net248
*2082 net249
*2083 net25
*2084 net250
*2085 net251
*2086 net252
*2087 net253
*2088 net254
*2089 net255
*2090 net256
*2091 net257
*2092 net258
*2093 net259
*2094 net26
*2095 net260
*2096 net261
*2097 net262
*2098 net263
*2099 net264
*2100 net265
*2101 net266
*2102 net267
*2103 net268
*2104 net269
*2105 net27
*2106 net270
*2107 net271
*2108 net272
*2109 net273
*2110 net274
*2111 net275
*2112 net276
*2113 net277
*2114 net278
*2115 net279
*2116 net28
*2117 net280
*2118 net281
*2119 net282
*2120 net283
*2121 net284
*2122 net285
*2123 net286
*2124 net287
*2125 net288
*2126 net289
*2127 net29
*2128 net290
*2129 net291
*2130 net292
*2131 net293
*2132 net294
*2133 net295
*2134 net296
*2135 net297
*2136 net298
*2137 net299
*2138 net3
*2139 net30
*2140 net300
*2141 net301
*2142 net302
*2143 net303
*2144 net304
*2145 net305
*2146 net306
*2147 net307
*2148 net308
*2149 net309
*2150 net31
*2151 net310
*2152 net311
*2153 net312
*2154 net313
*2155 net314
*2156 net315
*2157 net316
*2158 net317
*2159 net318
*2160 net319
*2161 net32
*2162 net320
*2163 net321
*2164 net322
*2165 net323
*2166 net324
*2167 net325
*2168 net326
*2169 net327
*2170 net328
*2171 net329
*2172 net33
*2173 net330
*2174 net331
*2175 net332
*2176 net333
*2177 net334
*2178 net335
*2179 net336
*2180 net337
*2181 net338
*2182 net339
*2183 net34
*2184 net340
*2185 net341
*2186 net342
*2187 net343
*2188 net344
*2189 net345
*2190 net346
*2191 net347
*2192 net348
*2193 net349
*2194 net35
*2195 net350
*2196 net351
*2197 net352
*2198 net353
*2199 net354
*2200 net355
*2201 net356
*2202 net357
*2203 net358
*2204 net359
*2205 net36
*2206 net360
*2207 net361
*2208 net362
*2209 net363
*2210 net364
*2211 net365
*2212 net366
*2213 net367
*2214 net368
*2215 net369
*2216 net37
*2217 net370
*2218 net371
*2219 net372
*2220 net373
*2221 net374
*2222 net375
*2223 net376
*2224 net377
*2225 net378
*2226 net379
*2227 net38
*2228 net380
*2229 net381
*2230 net382
*2231 net383
*2232 net384
*2233 net385
*2234 net386
*2235 net387
*2236 net388
*2237 net389
*2238 net39